*SPEF "ieee 1481-1999"
*DESIGN "counter"
*DATE "18:10:40 Saturday May 24, 2025"
*VENDOR "The OpenROAD Project"
*PROGRAM "OpenROAD"
*VERSION "b16bda7e82721d10566ff7e2b68f1ff0be9f9e38"
*DESIGN_FLOW "NAME_SCOPE LOCAL" "PIN_CAP NONE"
*DIVIDER /
*DELIMITER :
*BUS_DELIMITER []
*T_UNIT 1 NS
*C_UNIT 1 PF
*R_UNIT 1 OHM
*L_UNIT 1 HENRY

*NAME_MAP
*3 clk
*4 count[0]
*5 count[1]
*6 count[2]
*7 count[3]
*8 reset
*9 _00_
*10 _01_
*11 _02_
*12 _03_
*13 _04_
*14 _05_
*15 _06_
*16 _07_
*17 _08_
*18 _09_
*19 _10_
*20 _11_
*21 _12_
*22 clknet_0_clk
*23 clknet_1_0__leaf_clk
*24 clknet_1_1__leaf_clk
*25 net1
*26 net2
*27 net3
*28 net4
*29 net5
*30 FILLER_0_0_21
*31 FILLER_0_0_27
*32 FILLER_0_0_29
*33 FILLER_0_0_3
*34 FILLER_0_0_37
*35 FILLER_0_1_12
*36 FILLER_0_1_36
*37 FILLER_0_1_40
*38 FILLER_0_2_29
*39 FILLER_0_3_14
*40 FILLER_0_3_36
*41 FILLER_0_4_3
*42 FILLER_0_5_3
*43 FILLER_0_6_15
*44 FILLER_0_6_23
*45 FILLER_0_6_29
*46 FILLER_0_6_3
*47 FILLER_0_6_37
*48 PHY_EDGE_ROW_0_Left_7
*49 PHY_EDGE_ROW_0_Right_0
*50 PHY_EDGE_ROW_1_Left_8
*51 PHY_EDGE_ROW_1_Right_1
*52 PHY_EDGE_ROW_2_Left_9
*53 PHY_EDGE_ROW_2_Right_2
*54 PHY_EDGE_ROW_3_Left_10
*55 PHY_EDGE_ROW_3_Right_3
*56 PHY_EDGE_ROW_4_Left_11
*57 PHY_EDGE_ROW_4_Right_4
*58 PHY_EDGE_ROW_5_Left_12
*59 PHY_EDGE_ROW_5_Right_5
*60 PHY_EDGE_ROW_6_Left_13
*61 PHY_EDGE_ROW_6_Right_6
*62 TAP_TAPCELL_ROW_0_14
*63 TAP_TAPCELL_ROW_2_15
*64 TAP_TAPCELL_ROW_4_16
*65 TAP_TAPCELL_ROW_6_17
*66 _13_
*67 _14_
*68 _15_
*69 _16_
*70 _17_
*71 _18_
*72 _19_
*73 _20_
*74 _21_
*75 _22_
*76 _23_
*77 _24_
*78 _25_
*79 _26_
*80 _27_
*81 _28_
*82 _29_
*83 clkbuf_0_clk
*84 clkbuf_1_0__f_clk
*85 clkbuf_1_1__f_clk
*86 input1
*87 output2
*88 output3
*89 output4
*90 output5

*PORTS
clk I
count[0] O
count[1] O
count[2] O
count[3] O
reset I

*D_NET *3 0.00284994
*CONN
*P clk I
*I *83:A I *D sky130_fd_sc_hd__clkbuf_16
*CAP
1 clk 0.000880222
2 *83:A 0
3 *3:13 0.000880222
4 *3:13 *70:A_N 0
5 *3:13 *70:B 8.09007e-05
6 *3:13 *74:A_N 9.4713e-05
7 *3:13 *17:20 0.000399448
8 *3:13 *18:12 8.76595e-05
9 *3:13 *20:10 0.000183167
10 *3:13 *26:8 8.76088e-05
11 *3:13 *27:18 0.000141888
12 *3:13 *29:22 1.41099e-05
*RES
1 clk *3:13 39.9254 
2 *3:13 *83:A 23 
*END

*D_NET *4 0.000932955
*CONN
*P count[0] O
*I *87:X O *D sky130_fd_sc_hd__buf_1
*CAP
1 count[0] 0.000209421
2 *87:X 0.000257056
3 *4:8 0.000466477
*RES
1 *87:X *4:8 43.2511 
2 *4:8 count[0] 8.75787 
*END

*D_NET *5 0.0012742
*CONN
*P count[1] O
*I *88:X O *D sky130_fd_sc_hd__buf_1
*CAP
1 count[1] 0.000224427
2 *88:X 0.000204105
3 *5:8 0.000428532
4 *5:8 *77:A 0.000227497
5 *5:8 *26:68 0.000117244
6 *5:8 *26:92 7.23898e-05
*RES
1 *88:X *5:8 43.2511 
2 *5:8 count[1] 8.75787 
*END

*D_NET *6 0.00109411
*CONN
*P count[2] O
*I *89:X O *D sky130_fd_sc_hd__buf_1
*CAP
1 count[2] 0.000529222
2 *89:X 0.000529222
3 count[2] *90:A 0
4 count[2] *22:25 3.5664e-05
*RES
1 *89:X count[2] 49.0886 
*END

*D_NET *7 0.000994622
*CONN
*P count[3] O
*I *90:X O *D sky130_fd_sc_hd__buf_1
*CAP
1 count[3] 0.000209421
2 *90:X 0.00028789
3 *7:8 0.000497311
*RES
1 *90:X *7:8 43.9554 
2 *7:8 count[3] 8.75787 
*END

*D_NET *8 0.00103755
*CONN
*P reset I
*I *86:A I *D sky130_fd_sc_hd__buf_1
*CAP
1 reset 0.000462474
2 *86:A 0
3 *8:11 0.000462474
4 *8:11 *11:8 1.02387e-05
5 *8:11 *19:10 0
6 *8:11 *23:14 0.000102365
7 *8:11 *23:25 0
*RES
1 reset *8:11 29.3611 
2 *8:11 *86:A 23 
*END

*D_NET *9 0.00248906
*CONN
*I *79:D I *D sky130_fd_sc_hd__dfxtp_1
*I *66:Y O *D sky130_fd_sc_hd__nor2_1
*CAP
1 *79:D 0
2 *66:Y 0.000125347
3 *9:14 0.000562813
4 *9:8 0.00068816
5 *9:8 *16:12 7.51453e-06
6 *9:8 *23:6 1.34995e-05
7 *9:8 *23:14 3.42398e-05
8 *9:14 *16:12 0.000769312
9 *9:14 *23:25 0.000136761
10 *9:14 *25:21 0
11 *9:14 *25:32 0
12 *9:14 *25:40 6.5657e-05
13 *9:14 *29:10 5.84705e-05
14 *9:14 *29:14 2.72882e-05
*RES
1 *66:Y *9:8 39.5743 
2 *9:8 *9:14 27.8066 
3 *9:14 *79:D 23 
*END

*D_NET *10 0.000311505
*CONN
*I *80:D I *D sky130_fd_sc_hd__dfxtp_1
*I *71:X O *D sky130_fd_sc_hd__clkbuf_1
*CAP
1 *80:D 7.17495e-06
2 *71:X 7.55654e-05
3 *10:8 8.27404e-05
4 *80:D *67:C_N 1.64354e-05
5 *80:D *27:10 1.64354e-05
6 *10:8 *16:12 0.000113153
7 *10:8 *28:8 0
*RES
1 *71:X *10:8 39.5536 
2 *10:8 *80:D 38.1916 
*END

*D_NET *11 0.000443129
*CONN
*I *81:D I *D sky130_fd_sc_hd__dfxtp_1
*I *75:X O *D sky130_fd_sc_hd__clkbuf_1
*CAP
1 *81:D 5.80954e-05
2 *75:X 8.62946e-05
3 *11:8 0.00014439
4 *11:8 *23:14 0.00014411
5 *8:11 *11:8 1.02387e-05
*RES
1 *75:X *11:8 40.2579 
2 *11:8 *81:D 38.9943 
*END

*D_NET *12 0.00115434
*CONN
*I *82:D I *D sky130_fd_sc_hd__dfxtp_1
*I *78:Y O *D sky130_fd_sc_hd__a211oi_1
*CAP
1 *82:D 0
2 *78:Y 0.000278315
3 *12:10 0.000278315
4 *12:10 *68:B 5.50106e-05
5 *12:10 *73:B1 9.5877e-05
6 *12:10 *78:A1 8.48754e-05
7 *12:10 *78:B1 5.12254e-05
8 *12:10 *26:51 0.000171664
9 *12:10 *26:66 0.000139056
*RES
1 *78:Y *12:10 30.1723 
2 *12:10 *82:D 23 
*END

*D_NET *13 0.00242052
*CONN
*I *70:B I *D sky130_fd_sc_hd__and4b_1
*I *74:B I *D sky130_fd_sc_hd__and4b_1
*I *67:X O *D sky130_fd_sc_hd__or4bb_1
*CAP
1 *70:B 0.000331129
2 *74:B 0
3 *67:X 0.000187836
4 *13:10 0.000518965
5 *70:B *70:A_N 0.000213811
6 *70:B *70:D 0.000100069
7 *70:B *25:32 0.000301419
8 *70:B *26:8 0.000169683
9 *70:B *27:18 5.20202e-05
10 *13:10 *25:21 0.000164291
11 *13:10 *25:32 7.93144e-05
12 *13:10 *27:10 1.32939e-05
13 *13:10 *27:18 9.37056e-05
14 *13:10 *29:22 0.000114083
15 *3:13 *70:B 8.09007e-05
*RES
1 *67:X *13:10 42.8886 
2 *13:10 *74:B 38 
3 *13:10 *70:B 46.8864 
*END

*D_NET *14 0.00178697
*CONN
*I *70:C I *D sky130_fd_sc_hd__and4b_1
*I *68:Y O *D sky130_fd_sc_hd__nand2_1
*CAP
1 *70:C 0.000263342
2 *68:Y 0.000454659
3 *14:10 0.000718001
4 *70:C *70:D 7.00301e-05
5 *14:10 *72:B 0
6 *14:10 *16:12 0
7 *14:10 *22:12 0.000163361
8 *14:10 *26:19 5.37348e-06
9 *14:10 *26:51 8.2832e-05
10 *14:10 *26:66 2.93747e-05
*RES
1 *68:Y *14:10 45.7264 
2 *14:10 *70:C 42.4329 
*END

*D_NET *15 0.00106451
*CONN
*I *70:D I *D sky130_fd_sc_hd__and4b_1
*I *69:X O *D sky130_fd_sc_hd__or2_1
*CAP
1 *70:D 9.26084e-05
2 *69:X 0.000186502
3 *15:8 0.000279111
4 *15:8 *70:A_N 0.000249909
5 *15:8 *25:32 8.62783e-05
6 *70:B *70:D 0.000100069
7 *70:C *70:D 7.00301e-05
*RES
1 *69:X *15:8 42.3707 
2 *15:8 *70:D 40.1802 
*END

*D_NET *16 0.00222671
*CONN
*I *71:A I *D sky130_fd_sc_hd__clkbuf_1
*I *70:X O *D sky130_fd_sc_hd__and4b_1
*CAP
1 *71:A 0
2 *70:X 0
3 *16:12 0.000626615
4 *16:6 0.000626615
5 *16:12 *22:12 0
6 *16:12 *23:6 5.73288e-05
7 *16:12 *23:25 2.61756e-05
8 *16:12 *26:31 0
9 *16:12 *28:8 0
10 *9:8 *16:12 7.51453e-06
11 *9:14 *16:12 0.000769312
12 *10:8 *16:12 0.000113153
13 *14:10 *16:12 0
*RES
1 *70:X *16:6 38 
2 *16:6 *16:12 28.7957 
3 *16:12 *71:A 23 
*END

*D_NET *17 0.00366425
*CONN
*I *78:A2 I *D sky130_fd_sc_hd__a211oi_1
*I *74:C I *D sky130_fd_sc_hd__and4b_1
*I *72:Y O *D sky130_fd_sc_hd__nand3_1
*CAP
1 *78:A2 0
2 *74:C 0
3 *72:Y 0.000339186
4 *17:20 0.000637729
5 *17:10 0.000976914
6 *17:10 *72:A 1.03955e-05
7 *17:10 *72:B 0.000120624
8 *17:10 *72:C 0.000194232
9 *17:10 *27:34 6.7177e-06
10 *17:10 *28:34 3.14214e-05
11 *17:20 *18:12 1.56665e-05
12 *17:20 *20:10 0.000450891
13 *17:20 *22:12 0.000354116
14 *17:20 *22:25 3.47781e-05
15 *17:20 *27:34 7.75329e-06
16 *17:20 *27:62 5.50106e-05
17 *17:20 *28:34 2.93666e-05
18 *3:13 *17:20 0.000399448
*RES
1 *72:Y *17:10 45.0014 
2 *17:10 *17:20 28.1743 
3 *17:20 *74:C 23 
4 *17:10 *78:A2 38 
*END

*D_NET *18 0.00315152
*CONN
*I *74:D I *D sky130_fd_sc_hd__and4b_1
*I *73:X O *D sky130_fd_sc_hd__a21o_1
*CAP
1 *74:D 0
2 *73:X 7.81063e-05
3 *18:12 0.000269958
4 *18:8 0.000348064
5 *18:8 *21:8 0.000166522
6 *18:8 *27:70 4.59027e-05
7 *18:12 *20:10 0.000659388
8 *18:12 *27:62 0.000306344
9 *18:12 *29:22 0.000132419
10 *18:12 *29:33 0.00104149
11 *3:13 *18:12 8.76595e-05
12 *17:20 *18:12 1.56665e-05
*RES
1 *73:X *18:8 40.2579 
2 *18:8 *18:12 27.8791 
3 *18:12 *74:D 23 
*END

*D_NET *19 0.00112021
*CONN
*I *75:A I *D sky130_fd_sc_hd__clkbuf_1
*I *74:X O *D sky130_fd_sc_hd__and4b_1
*CAP
1 *75:A 0
2 *74:X 0.000336109
3 *19:10 0.000336109
4 *19:10 *25:21 0.000299178
5 *19:10 *26:44 4.95813e-05
6 *19:10 *29:22 9.92345e-05
7 *8:11 *19:10 0
*RES
1 *74:X *19:10 43.8207 
2 *19:10 *75:A 38 
*END

*D_NET *20 0.00220647
*CONN
*I *78:A1 I *D sky130_fd_sc_hd__a211oi_1
*I *76:Y O *D sky130_fd_sc_hd__inv_2
*CAP
1 *78:A1 0.000114977
2 *76:Y 0.00022427
3 *20:10 0.000339247
4 *20:10 *22:25 3.95159e-06
5 *20:10 *27:34 0.000135557
6 *20:10 *27:62 1.01436e-05
7 *3:13 *20:10 0.000183167
8 *12:10 *78:A1 8.48754e-05
9 *17:20 *20:10 0.000450891
10 *18:12 *20:10 0.000659388
*RES
1 *76:Y *20:10 47.1971 
2 *20:10 *78:A1 39.5743 
*END

*D_NET *21 0.00090958
*CONN
*I *78:B1 I *D sky130_fd_sc_hd__a211oi_1
*I *77:X O *D sky130_fd_sc_hd__and4_1
*CAP
1 *78:B1 8.71525e-05
2 *77:X 0.000160859
3 *21:8 0.000248011
4 *78:B1 *73:B1 4.00259e-06
5 *21:8 *27:70 0
6 *21:8 *28:34 0.000156153
7 *21:8 *29:33 3.56537e-05
8 *12:10 *78:B1 5.12254e-05
9 *18:8 *21:8 0.000166522
*RES
1 *77:X *21:8 42.3707 
2 *21:8 *78:B1 39.595 
*END

*D_NET *22 0.00290818
*CONN
*I *84:A I *D sky130_fd_sc_hd__clkbuf_16
*I *85:A I *D sky130_fd_sc_hd__clkbuf_16
*I *83:X O *D sky130_fd_sc_hd__clkbuf_16
*CAP
1 *84:A 0
2 *85:A 0
3 *83:X 0
4 *22:25 0.000447871
5 *22:12 0.000528939
6 *22:4 0.00097681
7 *22:12 *72:B 0
8 *22:12 *24:21 5.93278e-05
9 *22:12 *26:31 0.000114083
10 *22:12 *27:34 0
11 *22:12 *27:62 2.18409e-05
12 *22:25 *27:32 0
13 *22:25 *27:62 2.15048e-05
14 *22:25 *28:8 0
15 *22:25 *28:34 0.000145936
16 *22:25 *29:33 0
17 count[2] *22:25 3.5664e-05
18 *14:10 *22:12 0.000163361
19 *16:12 *22:12 0
20 *17:20 *22:12 0.000354116
21 *17:20 *22:25 3.47781e-05
22 *20:10 *22:25 3.95159e-06
*RES
1 *83:X *22:4 23 
2 *22:4 *22:12 39.5079 
3 *22:12 *85:A 23 
4 *22:4 *22:25 38.6586 
5 *22:25 *84:A 23 
*END

*D_NET *23 0.00168919
*CONN
*I *80:CLK I *D sky130_fd_sc_hd__dfxtp_1
*I *81:CLK I *D sky130_fd_sc_hd__dfxtp_1
*I *84:X O *D sky130_fd_sc_hd__clkbuf_16
*CAP
1 *80:CLK 0
2 *81:CLK 0
3 *84:X 9.54549e-05
4 *23:25 9.82612e-05
5 *23:14 0.000255131
6 *23:6 0.000448847
7 *23:14 *66:B 5.69371e-05
8 *23:14 *25:6 3.17634e-05
9 *23:25 *26:44 0.000188316
10 *8:11 *23:14 0.000102365
11 *8:11 *23:25 0
12 *9:8 *23:6 1.34995e-05
13 *9:8 *23:14 3.42398e-05
14 *9:14 *23:25 0.000136761
15 *11:8 *23:14 0.00014411
16 *16:12 *23:6 5.73288e-05
17 *16:12 *23:25 2.61756e-05
*RES
1 *84:X *23:6 25.0507 
2 *23:6 *23:14 36.09 
3 *23:14 *81:CLK 23 
4 *23:6 *23:25 32.9621 
5 *23:25 *80:CLK 23 
*END

*D_NET *24 0.00143737
*CONN
*I *82:CLK I *D sky130_fd_sc_hd__dfxtp_1
*I *79:CLK I *D sky130_fd_sc_hd__dfxtp_1
*I *85:X O *D sky130_fd_sc_hd__clkbuf_16
*CAP
1 *82:CLK 0
2 *79:CLK 0.000104551
3 *85:X 0.000284065
4 *24:21 0.000103359
5 *24:8 0.000491975
6 *79:CLK *25:40 9.62666e-05
7 *24:8 *25:40 0.000204948
8 *24:21 *72:B 9.28739e-05
9 *22:12 *24:21 5.93278e-05
*RES
1 *85:X *24:8 28.8829 
2 *24:8 *79:CLK 25.0507 
3 *24:8 *24:21 32.61 
4 *24:21 *82:CLK 23 
*END

*D_NET *25 0.00589305
*CONN
*I *70:A_N I *D sky130_fd_sc_hd__and4b_1
*I *78:C1 I *D sky130_fd_sc_hd__a211oi_1
*I *74:A_N I *D sky130_fd_sc_hd__and4b_1
*I *66:B I *D sky130_fd_sc_hd__nor2_1
*I *86:X O *D sky130_fd_sc_hd__buf_1
*CAP
1 *70:A_N 8.71096e-05
2 *78:C1 0
3 *74:A_N 9.5681e-05
4 *66:B 9.09776e-05
5 *86:X 7.48848e-05
6 *25:40 0.00109565
7 *25:32 0.00137354
8 *25:21 0.000484927
9 *25:6 0.000364329
10 *74:A_N *29:22 9.41704e-05
11 *25:21 *27:18 1.69668e-05
12 *25:32 *29:10 0
13 *25:32 *29:14 0
14 *25:40 *72:C 0.000108681
15 *25:40 *26:68 0
16 *25:40 *27:70 0
17 *25:40 *28:34 6.16439e-05
18 *70:B *70:A_N 0.000213811
19 *70:B *25:32 0.000301419
20 *79:CLK *25:40 9.62666e-05
21 *3:13 *70:A_N 0
22 *3:13 *74:A_N 9.4713e-05
23 *9:14 *25:21 0
24 *9:14 *25:32 0
25 *9:14 *25:40 6.5657e-05
26 *13:10 *25:21 0.000164291
27 *13:10 *25:32 7.93144e-05
28 *15:8 *70:A_N 0.000249909
29 *15:8 *25:32 8.62783e-05
30 *19:10 *25:21 0.000299178
31 *23:14 *66:B 5.69371e-05
32 *23:14 *25:6 3.17634e-05
33 *24:8 *25:40 0.000204948
*RES
1 *86:X *25:6 24.0979 
2 *25:6 *66:B 25.0921 
3 *25:6 *25:21 19.7229 
4 *25:21 *74:A_N 40.0507 
5 *25:21 *25:32 5.075 
6 *25:32 *25:40 44.79 
7 *25:40 *78:C1 38 
8 *25:32 *70:A_N 41.6664 
*END

*D_NET *26 0.0082127
*CONN
*I *72:A I *D sky130_fd_sc_hd__nand3_1
*I *87:A I *D sky130_fd_sc_hd__buf_1
*I *73:A1 I *D sky130_fd_sc_hd__a21o_1
*I *77:A I *D sky130_fd_sc_hd__and4_1
*I *68:A I *D sky130_fd_sc_hd__nand2_1
*I *66:A I *D sky130_fd_sc_hd__nor2_1
*I *67:D_N I *D sky130_fd_sc_hd__or4bb_1
*I *69:A I *D sky130_fd_sc_hd__or2_1
*I *79:Q O *D sky130_fd_sc_hd__dfxtp_1
*CAP
1 *72:A 0.000364184
2 *87:A 0
3 *73:A1 0
4 *77:A 0.000194434
5 *68:A 0
6 *66:A 0
7 *67:D_N 0
8 *69:A 0
9 *79:Q 5.45546e-05
10 *26:92 0.00065609
11 *26:68 0.000253139
12 *26:66 0.000840611
13 *26:51 0.000556902
14 *26:44 0.00012362
15 *26:31 0.00088171
16 *26:19 0.0012261
17 *26:12 0.000448203
18 *26:8 0.000101653
19 *72:A *72:B 5.50049e-05
20 *72:A *72:C 0.000128391
21 *77:A *27:70 0.000169683
22 *77:A *29:33 7.03766e-05
23 *26:19 *29:10 5.40241e-05
24 *26:31 *67:C_N 0.000184409
25 *26:31 *27:10 0
26 *26:31 *27:32 0
27 *26:31 *28:23 3.7122e-06
28 *26:44 *67:C_N 5.56279e-05
29 *26:44 *27:10 5.40241e-05
30 *26:66 *68:B 5.50106e-05
31 *26:66 *73:B1 0.000174663
32 *26:66 *27:70 1.59094e-05
33 *26:68 *27:70 2.55642e-05
34 *26:92 *72:C 0
35 *70:B *26:8 0.000169683
36 *3:13 *26:8 8.76088e-05
37 *5:8 *77:A 0.000227497
38 *5:8 *26:68 0.000117244
39 *5:8 *26:92 7.23898e-05
40 *12:10 *26:51 0.000171664
41 *12:10 *26:66 0.000139056
42 *14:10 *26:19 5.37348e-06
43 *14:10 *26:51 8.2832e-05
44 *14:10 *26:66 2.93747e-05
45 *16:12 *26:31 0
46 *17:10 *72:A 1.03955e-05
47 *19:10 *26:44 4.95813e-05
48 *22:12 *26:31 0.000114083
49 *23:25 *26:44 0.000188316
50 *25:40 *26:68 0
*RES
1 *79:Q *26:8 40.2579 
2 *26:8 *26:12 15.6214 
3 *26:12 *69:A 23 
4 *26:12 *26:19 6.815 
5 *26:19 *26:31 41.455 
6 *26:31 *67:D_N 23 
7 *26:31 *26:44 33.7079 
8 *26:44 *66:A 23 
9 *26:19 *26:51 2.52714 
10 *26:51 *68:A 23 
11 *26:51 *26:66 23.3064 
12 *26:66 *26:68 1.55357 
13 *26:68 *77:A 43.3443 
14 *26:68 *73:A1 38 
15 *26:66 *26:92 20.3443 
16 *26:92 *87:A 23 
17 *26:92 *72:A 30.8093 
*END

*D_NET *27 0.00760329
*CONN
*I *77:B I *D sky130_fd_sc_hd__and4_1
*I *88:A I *D sky130_fd_sc_hd__buf_1
*I *73:A2 I *D sky130_fd_sc_hd__a21o_1
*I *72:B I *D sky130_fd_sc_hd__nand3_1
*I *68:B I *D sky130_fd_sc_hd__nand2_1
*I *67:A I *D sky130_fd_sc_hd__or4bb_1
*I *69:B I *D sky130_fd_sc_hd__or2_1
*I *80:Q O *D sky130_fd_sc_hd__dfxtp_1
*CAP
1 *77:B 0.000281287
2 *88:A 0
3 *73:A2 0
4 *72:B 0.000302715
5 *68:B 1.49804e-05
6 *67:A 0
7 *69:B 0
8 *80:Q 0
9 *27:70 0.000170544
10 *27:62 0.000516892
11 *27:34 0.000473226
12 *27:32 0.000722411
13 *27:18 0.000238648
14 *27:10 0.00102842
15 *27:6 0.00104478
16 *27:4 0.000315757
17 *72:B *72:C 0
18 *77:B *77:D 0.000173898
19 *77:B *28:23 0.000184527
20 *77:B *28:30 4.34745e-05
21 *27:6 *28:23 2.18506e-05
22 *27:10 *67:C_N 0.000174115
23 *27:10 *28:23 0.000144067
24 *27:18 *29:22 0.000116314
25 *27:32 *28:8 0
26 *27:62 *29:33 4.6595e-05
27 *27:70 *28:34 0
28 *70:B *27:18 5.20202e-05
29 *72:A *72:B 5.50049e-05
30 *77:A *27:70 0.000169683
31 *80:D *27:10 1.64354e-05
32 *3:13 *27:18 0.000141888
33 *12:10 *68:B 5.50106e-05
34 *13:10 *27:10 1.32939e-05
35 *13:10 *27:18 9.37056e-05
36 *14:10 *72:B 0
37 *17:10 *72:B 0.000120624
38 *17:10 *27:34 6.7177e-06
39 *17:20 *27:34 7.75329e-06
40 *17:20 *27:62 5.50106e-05
41 *18:8 *27:70 4.59027e-05
42 *18:12 *27:62 0.000306344
43 *20:10 *27:34 0.000135557
44 *20:10 *27:62 1.01436e-05
45 *21:8 *27:70 0
46 *22:12 *72:B 0
47 *22:12 *27:34 0
48 *22:12 *27:62 2.18409e-05
49 *22:25 *27:32 0
50 *22:25 *27:62 2.15048e-05
51 *24:21 *72:B 9.28739e-05
52 *25:21 *27:18 1.69668e-05
53 *25:40 *27:70 0
54 *26:31 *27:10 0
55 *26:31 *27:32 0
56 *26:44 *27:10 5.40241e-05
57 *26:66 *68:B 5.50106e-05
58 *26:66 *27:70 1.59094e-05
59 *26:68 *27:70 2.55642e-05
*RES
1 *80:Q *27:4 23 
2 *27:4 *27:6 0.621429 
3 *27:6 *27:10 10.9993 
4 *27:10 *27:18 36.0486 
5 *27:18 *69:B 23 
6 *27:10 *67:A 23 
7 *27:6 *27:32 18.4904 
8 *27:32 *27:34 3.13821 
9 *27:34 *68:B 38.6214 
10 *27:34 *72:B 44.4007 
11 *27:32 *27:62 21.6804 
12 *27:62 *27:70 33.7079 
13 *27:70 *73:A2 23 
14 *27:62 *88:A 23 
15 *27:4 *77:B 28.8829 
*END

*D_NET *28 0.00508577
*CONN
*I *77:D I *D sky130_fd_sc_hd__and4_1
*I *72:C I *D sky130_fd_sc_hd__nand3_1
*I *73:B1 I *D sky130_fd_sc_hd__a21o_1
*I *89:A I *D sky130_fd_sc_hd__buf_1
*I *67:C_N I *D sky130_fd_sc_hd__or4bb_1
*I *81:Q O *D sky130_fd_sc_hd__dfxtp_1
*CAP
1 *77:D 6.7044e-05
2 *72:C 0.000308773
3 *73:B1 0.000133058
4 *89:A 0
5 *67:C_N 0.000194475
6 *81:Q 0.000275331
7 *28:34 0.000704419
8 *28:30 0.000352644
9 *28:23 0.000235375
10 *28:10 0.000406838
11 *28:8 0.000275331
12 *28:34 *29:33 0
13 *72:A *72:C 0.000128391
14 *72:B *72:C 0
15 *77:B *77:D 0.000173898
16 *77:B *28:23 0.000184527
17 *77:B *28:30 4.34745e-05
18 *78:B1 *73:B1 4.00259e-06
19 *80:D *67:C_N 1.64354e-05
20 *10:8 *28:8 0
21 *12:10 *73:B1 9.5877e-05
22 *16:12 *28:8 0
23 *17:10 *72:C 0.000194232
24 *17:10 *28:34 3.14214e-05
25 *17:20 *28:34 2.93666e-05
26 *21:8 *28:34 0.000156153
27 *22:25 *28:8 0
28 *22:25 *28:34 0.000145936
29 *25:40 *72:C 0.000108681
30 *25:40 *28:34 6.16439e-05
31 *26:31 *67:C_N 0.000184409
32 *26:31 *28:23 3.7122e-06
33 *26:44 *67:C_N 5.56279e-05
34 *26:66 *73:B1 0.000174663
35 *26:92 *72:C 0
36 *27:6 *28:23 2.18506e-05
37 *27:10 *67:C_N 0.000174115
38 *27:10 *28:23 0.000144067
39 *27:32 *28:8 0
40 *27:70 *28:34 0
*RES
1 *81:Q *28:8 42.7229 
2 *28:8 *28:10 15 
3 *28:10 *67:C_N 28.5514 
4 *28:10 *28:23 5.38571 
5 *28:23 *89:A 23 
6 *28:23 *28:30 0.621429 
7 *28:30 *28:34 21.4836 
8 *28:34 *73:B1 41.5214 
9 *28:34 *72:C 45.25 
10 *28:30 *77:D 25.0507 
*END

*D_NET *29 0.00488786
*CONN
*I *76:A I *D sky130_fd_sc_hd__inv_2
*I *77:C I *D sky130_fd_sc_hd__and4_1
*I *90:A I *D sky130_fd_sc_hd__buf_1
*I *67:B I *D sky130_fd_sc_hd__or4bb_1
*I *82:Q O *D sky130_fd_sc_hd__dfxtp_1
*CAP
1 *76:A 0
2 *77:C 0
3 *90:A 0.000323955
4 *67:B 0
5 *82:Q 0.000182091
6 *29:33 0.00107554
7 *29:22 0.000183122
8 *29:14 0.000985767
9 *29:10 0.000233154
10 count[2] *90:A 0
11 *74:A_N *29:22 9.41704e-05
12 *77:A *29:33 7.03766e-05
13 *3:13 *29:22 1.41099e-05
14 *9:14 *29:10 5.84705e-05
15 *9:14 *29:14 2.72882e-05
16 *13:10 *29:22 0.000114083
17 *18:12 *29:22 0.000132419
18 *18:12 *29:33 0.00104149
19 *19:10 *29:22 9.92345e-05
20 *21:8 *29:33 3.56537e-05
21 *22:25 *29:33 0
22 *25:32 *29:10 0
23 *25:32 *29:14 0
24 *26:19 *29:10 5.40241e-05
25 *27:18 *29:22 0.000116314
26 *27:62 *29:33 4.6595e-05
27 *28:34 *29:33 0
*RES
1 *82:Q *29:10 41.0036 
2 *29:10 *29:14 15.8493 
3 *29:14 *29:22 34.5571 
4 *29:22 *67:B 23 
5 *29:14 *29:33 30.8464 
6 *29:33 *90:A 43.6964 
7 *29:33 *77:C 38 
8 *29:10 *76:A 38 
*END
