*SPEF "ieee 1481-1999"
*DESIGN "counter"
*DATE "18:10:42 Saturday May 24, 2025"
*VENDOR "The OpenROAD Project"
*PROGRAM "OpenROAD"
*VERSION "b16bda7e82721d10566ff7e2b68f1ff0be9f9e38"
*DESIGN_FLOW "NAME_SCOPE LOCAL" "PIN_CAP NONE"
*DIVIDER /
*DELIMITER :
*BUS_DELIMITER []
*T_UNIT 1 NS
*C_UNIT 1 PF
*R_UNIT 1 OHM
*L_UNIT 1 HENRY

*NAME_MAP
*3 clk
*4 count[0]
*5 count[1]
*6 count[2]
*7 count[3]
*8 reset
*9 _00_
*10 _01_
*11 _02_
*12 _03_
*13 _04_
*14 _05_
*15 _06_
*16 _07_
*17 _08_
*18 _09_
*19 _10_
*20 _11_
*21 _12_
*22 clknet_0_clk
*23 clknet_1_0__leaf_clk
*24 clknet_1_1__leaf_clk
*25 net1
*26 net2
*27 net3
*28 net4
*29 net5
*30 FILLER_0_0_21
*31 FILLER_0_0_27
*32 FILLER_0_0_29
*33 FILLER_0_0_3
*34 FILLER_0_0_37
*35 FILLER_0_1_12
*36 FILLER_0_1_36
*37 FILLER_0_1_40
*38 FILLER_0_2_29
*39 FILLER_0_3_14
*40 FILLER_0_3_36
*41 FILLER_0_4_3
*42 FILLER_0_5_3
*43 FILLER_0_6_15
*44 FILLER_0_6_23
*45 FILLER_0_6_29
*46 FILLER_0_6_3
*47 FILLER_0_6_37
*48 PHY_EDGE_ROW_0_Left_7
*49 PHY_EDGE_ROW_0_Right_0
*50 PHY_EDGE_ROW_1_Left_8
*51 PHY_EDGE_ROW_1_Right_1
*52 PHY_EDGE_ROW_2_Left_9
*53 PHY_EDGE_ROW_2_Right_2
*54 PHY_EDGE_ROW_3_Left_10
*55 PHY_EDGE_ROW_3_Right_3
*56 PHY_EDGE_ROW_4_Left_11
*57 PHY_EDGE_ROW_4_Right_4
*58 PHY_EDGE_ROW_5_Left_12
*59 PHY_EDGE_ROW_5_Right_5
*60 PHY_EDGE_ROW_6_Left_13
*61 PHY_EDGE_ROW_6_Right_6
*62 TAP_TAPCELL_ROW_0_14
*63 TAP_TAPCELL_ROW_2_15
*64 TAP_TAPCELL_ROW_4_16
*65 TAP_TAPCELL_ROW_6_17
*66 _13_
*67 _14_
*68 _15_
*69 _16_
*70 _17_
*71 _18_
*72 _19_
*73 _20_
*74 _21_
*75 _22_
*76 _23_
*77 _24_
*78 _25_
*79 _26_
*80 _27_
*81 _28_
*82 _29_
*83 clkbuf_0_clk
*84 clkbuf_1_0__f_clk
*85 clkbuf_1_1__f_clk
*86 input1
*87 output2
*88 output3
*89 output4
*90 output5

*PORTS
clk I
count[0] O
count[1] O
count[2] O
count[3] O
reset I

*D_NET *3 0.00261595
*CONN
*P clk I
*I *83:A I *D sky130_fd_sc_hd__clkbuf_16
*CAP
1 clk 0.000777635
2 *83:A 0.000777635
3 *83:A *67:B 1.41034e-05
4 *83:A *69:B 0.000128161
5 *83:A *70:A_N 0
6 *83:A *70:B 7.98681e-05
7 *83:A *74:A_N 9.3111e-05
8 *83:A *74:C 0.000394932
9 *83:A *74:D 8.44577e-05
10 *83:A *78:A1 0.000182143
11 *83:A *26:12 8.39e-05
*RES
1 clk *83:A 31.7836 
*END

*D_NET *4 0.000875481
*CONN
*P count[0] O
*I *87:X O *D sky130_fd_sc_hd__buf_1
*CAP
1 count[0] 0.000437741
2 *87:X 0.000437741
*RES
1 *87:X count[0] 22.3729 
*END

*D_NET *5 0.00115228
*CONN
*P count[1] O
*I *88:X O *D sky130_fd_sc_hd__buf_1
*CAP
1 count[1] 0.00038806
2 *88:X 0.00038806
3 count[1] *77:A 0.00020455
4 count[1] *26:68 0.000105689
5 count[1] *26:92 6.5919e-05
*RES
1 *88:X count[1] 22.3729 
*END

*D_NET *6 0.00102823
*CONN
*P count[2] O
*I *89:X O *D sky130_fd_sc_hd__buf_1
*CAP
1 count[2] 0.000496255
2 *89:X 0.000496255
3 count[2] *84:A 3.57163e-05
4 count[2] *90:A 0
*RES
1 *89:X count[2] 19.8416 
*END

*D_NET *7 0.000934871
*CONN
*P count[3] O
*I *90:X O *D sky130_fd_sc_hd__buf_1
*CAP
1 count[3] 0.000467435
2 *90:X 0.000467435
*RES
1 *90:X count[3] 22.98 
*END

*D_NET *8 0.000960412
*CONN
*P reset I
*I *86:A I *D sky130_fd_sc_hd__buf_1
*CAP
1 reset 0.000426186
2 *86:A 0.000426186
3 *86:A *75:A 0
4 *86:A *80:CLK 0
5 *86:A *81:CLK 9.80029e-05
6 *86:A *81:D 1.00375e-05
*RES
1 reset *86:A 22.6764 
*END

*D_NET *9 0.00217593
*CONN
*I *79:D I *D sky130_fd_sc_hd__dfxtp_1
*I *66:Y O *D sky130_fd_sc_hd__nor2_1
*CAP
1 *79:D 0.000577497
2 *66:Y 0.000577497
3 *79:D *71:A 0.000701664
4 *79:D *78:C1 6.53711e-05
5 *79:D *80:CLK 0.000123495
6 *79:D *81:CLK 3.42426e-05
7 *79:D *23:6 1.34631e-05
8 *79:D *25:21 0
9 *79:D *25:32 0
10 *79:D *29:10 5.6394e-05
11 *79:D *29:14 2.6304e-05
*RES
1 *66:Y *79:D 39.9973 
*END

*D_NET *10 0.000269718
*CONN
*I *80:D I *D sky130_fd_sc_hd__dfxtp_1
*I *71:X O *D sky130_fd_sc_hd__clkbuf_1
*CAP
1 *80:D 6.71522e-05
2 *71:X 6.71522e-05
3 *80:D *67:C_N 1.64343e-05
4 *80:D *71:A 0.000102545
5 *80:D *27:10 1.64343e-05
6 *80:D *28:10 0
*RES
1 *71:X *80:D 29.1045 
*END

*D_NET *11 0.000398326
*CONN
*I *81:D I *D sky130_fd_sc_hd__dfxtp_1
*I *75:X O *D sky130_fd_sc_hd__clkbuf_1
*CAP
1 *81:D 0.00012921
2 *75:X 0.00012921
3 *81:D *81:CLK 0.000129868
4 *86:A *81:D 1.00375e-05
*RES
1 *75:X *81:D 30.4036 
*END

*D_NET *12 0.00108102
*CONN
*I *82:D I *D sky130_fd_sc_hd__dfxtp_1
*I *78:Y O *D sky130_fd_sc_hd__a211oi_1
*CAP
1 *82:D 0.000242622
2 *78:Y 0.000242622
3 *82:D *68:B 5.52302e-05
4 *82:D *73:B1 9.60939e-05
5 *82:D *78:A1 8.48028e-05
6 *82:D *78:B1 5.03772e-05
7 *82:D *26:51 0.000172899
8 *82:D *26:66 0.000136371
*RES
1 *78:Y *82:D 24.783 
*END

*D_NET *13 0.00215267
*CONN
*I *70:B I *D sky130_fd_sc_hd__and4b_1
*I *74:B I *D sky130_fd_sc_hd__and4b_1
*I *67:X O *D sky130_fd_sc_hd__or4bb_1
*CAP
1 *70:B 0.000283853
2 *74:B 0
3 *67:X 0.000155843
4 *13:10 0.000439696
5 *70:B *69:B 4.98872e-05
6 *70:B *70:A_N 0.000192577
7 *70:B *70:D 9.83442e-05
8 *70:B *25:32 0.000271958
9 *70:B *26:12 0.000153054
10 *13:10 *67:B 0.00010326
11 *13:10 *69:B 9.06147e-05
12 *13:10 *25:21 0.000148911
13 *13:10 *25:32 7.15521e-05
14 *13:10 *27:10 1.32552e-05
15 *83:A *70:B 7.98681e-05
*RES
1 *67:X *13:10 18.0143 
2 *13:10 *74:B 13.8 
3 *13:10 *70:B 21.4607 
*END

*D_NET *14 0.00161958
*CONN
*I *70:C I *D sky130_fd_sc_hd__and4b_1
*I *68:Y O *D sky130_fd_sc_hd__nand2_1
*CAP
1 *70:C 0.000643455
2 *68:Y 0.000643455
3 *70:C *70:D 6.83862e-05
4 *70:C *71:A 0
5 *70:C *72:B 0
6 *70:C *85:A 0.000148196
7 *70:C *26:19 5.30637e-06
8 *70:C *26:51 8.18783e-05
9 *70:C *26:66 2.89016e-05
*RES
1 *68:Y *70:C 38.0821 
*END

*D_NET *15 0.000959844
*CONN
*I *70:D I *D sky130_fd_sc_hd__and4b_1
*I *69:X O *D sky130_fd_sc_hd__or2_1
*CAP
1 *70:D 0.000244724
2 *69:X 0.000244724
3 *70:D *70:A_N 0.000225307
4 *70:D *25:32 7.83587e-05
5 *70:B *70:D 9.83442e-05
6 *70:C *70:D 6.83862e-05
*RES
1 *69:X *70:D 33.2473 
*END

*D_NET *16 0.00194309
*CONN
*I *71:A I *D sky130_fd_sc_hd__clkbuf_1
*I *70:X O *D sky130_fd_sc_hd__and4b_1
*CAP
1 *71:A 0.000528411
2 *70:X 0.000528411
3 *71:A *80:CLK 2.51903e-05
4 *71:A *85:A 0
5 *71:A *23:6 5.68722e-05
6 *71:A *26:31 0
7 *71:A *28:10 0
8 *70:C *71:A 0
9 *79:D *71:A 0.000701664
10 *80:D *71:A 0.000102545
*RES
1 *70:X *71:A 39.4929 
*END

*D_NET *17 0.00340345
*CONN
*I *78:A2 I *D sky130_fd_sc_hd__a211oi_1
*I *74:C I *D sky130_fd_sc_hd__and4b_1
*I *72:Y O *D sky130_fd_sc_hd__nand3_1
*CAP
1 *78:A2 0
2 *74:C 0.000566935
3 *72:Y 0.000283701
4 *17:10 0.000850637
5 *74:C *74:D 1.54142e-05
6 *74:C *78:A1 0.000447182
7 *74:C *84:A 3.17148e-05
8 *74:C *85:A 0.000356022
9 *74:C *27:34 7.79781e-06
10 *74:C *27:62 5.52302e-05
11 *74:C *28:34 2.97074e-05
12 *17:10 *72:A 1.02936e-05
13 *17:10 *72:B 0.000120875
14 *17:10 *72:C 0.000195055
15 *17:10 *27:34 6.8646e-06
16 *17:10 *28:34 3.10821e-05
17 *83:A *74:C 0.000394932
*RES
1 *72:Y *17:10 19.8357 
2 *17:10 *74:C 25.1571 
3 *17:10 *78:A2 13.8 
*END

*D_NET *18 0.00299082
*CONN
*I *74:D I *D sky130_fd_sc_hd__and4b_1
*I *73:X O *D sky130_fd_sc_hd__a21o_1
*CAP
1 *74:D 0.000280144
2 *73:X 0.000280144
3 *74:D *67:B 0.000129938
4 *74:D *73:A2 4.57538e-05
5 *74:D *78:A1 0.000656784
6 *74:D *78:B1 0.000150625
7 *74:D *27:62 0.000307349
8 *74:D *29:33 0.00104021
9 *74:C *74:D 1.54142e-05
10 *83:A *74:D 8.44577e-05
*RES
1 *73:X *74:D 40.6491 
*END

*D_NET *19 0.000994963
*CONN
*I *75:A I *D sky130_fd_sc_hd__clkbuf_1
*I *74:X O *D sky130_fd_sc_hd__and4b_1
*CAP
1 *75:A 0.000287522
2 *74:X 0.000287522
3 *75:A *66:A 5.19718e-05
4 *75:A *67:B 9.77118e-05
5 *75:A *25:21 0.000270236
6 *86:A *75:A 0
*RES
1 *74:X *75:A 32.6179 
*END

*D_NET *20 0.00207394
*CONN
*I *78:A1 I *D sky130_fd_sc_hd__a211oi_1
*I *76:Y O *D sky130_fd_sc_hd__inv_2
*CAP
1 *78:A1 0.000283223
2 *76:Y 0.000283223
3 *78:A1 *84:A 4.038e-06
4 *78:A1 *27:34 0.000123295
5 *78:A1 *27:62 9.25014e-06
6 *74:C *78:A1 0.000447182
7 *74:D *78:A1 0.000656784
8 *82:D *78:A1 8.48028e-05
9 *83:A *78:A1 0.000182143
*RES
1 *76:Y *78:A1 36.8857 
*END

*D_NET *21 0.000796998
*CONN
*I *78:B1 I *D sky130_fd_sc_hd__a211oi_1
*I *77:X O *D sky130_fd_sc_hd__and4_1
*CAP
1 *78:B1 0.000203198
2 *77:X 0.000203198
3 *78:B1 *73:A2 0
4 *78:B1 *73:B1 3.99614e-06
5 *78:B1 *28:34 0.000149896
6 *78:B1 *29:33 3.5707e-05
7 *74:D *78:B1 0.000150625
8 *82:D *78:B1 5.03772e-05
*RES
1 *77:X *78:B1 32.7429 
*END

*D_NET *22 0.00263566
*CONN
*I *84:A I *D sky130_fd_sc_hd__clkbuf_16
*I *85:A I *D sky130_fd_sc_hd__clkbuf_16
*I *83:X O *D sky130_fd_sc_hd__clkbuf_16
*CAP
1 *84:A 0.000388542
2 *85:A 0.000468978
3 *83:X 0
4 *22:4 0.00085752
5 *84:A *27:32 0
6 *84:A *27:62 2.07158e-05
7 *84:A *28:10 0
8 *84:A *28:34 0.000140021
9 *84:A *29:33 0
10 *85:A *72:B 0
11 *85:A *82:CLK 5.94737e-05
12 *85:A *26:31 0.00010326
13 *85:A *27:34 0
14 *85:A *27:62 2.14658e-05
15 count[2] *84:A 3.57163e-05
16 *70:C *85:A 0.000148196
17 *71:A *85:A 0
18 *74:C *84:A 3.17148e-05
19 *74:C *85:A 0.000356022
20 *78:A1 *84:A 4.038e-06
*RES
1 *83:X *22:4 9.3 
2 *22:4 *85:A 26.4964 
3 *22:4 *84:A 25.7643 
*END

*D_NET *23 0.00150744
*CONN
*I *80:CLK I *D sky130_fd_sc_hd__dfxtp_1
*I *81:CLK I *D sky130_fd_sc_hd__dfxtp_1
*I *84:X O *D sky130_fd_sc_hd__clkbuf_16
*CAP
1 *80:CLK 7.88854e-05
2 *81:CLK 0.000217744
3 *84:X 8.83737e-05
4 *23:6 0.000385003
5 *80:CLK *66:A 0.000169844
6 *81:CLK *66:B 5.50313e-05
7 *81:CLK *25:6 3.14193e-05
8 *71:A *80:CLK 2.51903e-05
9 *71:A *23:6 5.68722e-05
10 *79:D *80:CLK 0.000123495
11 *79:D *81:CLK 3.42426e-05
12 *79:D *23:6 1.34631e-05
13 *81:D *81:CLK 0.000129868
14 *86:A *80:CLK 0
15 *86:A *81:CLK 9.80029e-05
*RES
1 *84:X *23:6 11.0679 
2 *23:6 *81:CLK 23.55 
3 *23:6 *80:CLK 20.8536 
*END

*D_NET *24 0.00128173
*CONN
*I *82:CLK I *D sky130_fd_sc_hd__dfxtp_1
*I *79:CLK I *D sky130_fd_sc_hd__dfxtp_1
*I *85:X O *D sky130_fd_sc_hd__clkbuf_16
*CAP
1 *82:CLK 8.09476e-05
2 *79:CLK 8.77229e-05
3 *85:X 0.000249669
4 *24:8 0.00041834
5 *79:CLK *78:C1 9.46929e-05
6 *82:CLK *72:B 8.9163e-05
7 *24:8 *78:C1 0.000201724
8 *85:A *82:CLK 5.94737e-05
*RES
1 *85:X *24:8 14.3714 
2 *24:8 *79:CLK 11.0679 
3 *24:8 *82:CLK 20.55 
*END

*D_NET *25 0.00531145
*CONN
*I *70:A_N I *D sky130_fd_sc_hd__and4b_1
*I *78:C1 I *D sky130_fd_sc_hd__a211oi_1
*I *74:A_N I *D sky130_fd_sc_hd__and4b_1
*I *66:B I *D sky130_fd_sc_hd__nor2_1
*I *86:X O *D sky130_fd_sc_hd__buf_1
*CAP
1 *70:A_N 7.36404e-05
2 *78:C1 0.000993992
3 *74:A_N 7.61342e-05
4 *66:B 8.40557e-05
5 *86:X 7.04414e-05
6 *25:32 0.00122769
7 *25:21 0.000400432
8 *25:6 0.000318737
9 *74:A_N *67:B 9.41642e-05
10 *78:C1 *72:C 9.91086e-05
11 *78:C1 *73:A2 0
12 *78:C1 *26:68 0
13 *78:C1 *28:34 5.58941e-05
14 *25:21 *69:B 1.69115e-05
15 *25:32 *29:10 0
16 *25:32 *29:14 0
17 *70:B *70:A_N 0.000192577
18 *70:B *25:32 0.000271958
19 *70:D *70:A_N 0.000225307
20 *70:D *25:32 7.83587e-05
21 *75:A *25:21 0.000270236
22 *79:CLK *78:C1 9.46929e-05
23 *79:D *78:C1 6.53711e-05
24 *79:D *25:21 0
25 *79:D *25:32 0
26 *81:CLK *66:B 5.50313e-05
27 *81:CLK *25:6 3.14193e-05
28 *83:A *70:A_N 0
29 *83:A *74:A_N 9.3111e-05
30 *13:10 *25:21 0.000148911
31 *13:10 *25:32 7.15521e-05
32 *24:8 *78:C1 0.000201724
*RES
1 *86:X *25:6 10.2464 
2 *25:6 *66:B 11.1036 
3 *25:6 *25:21 8.57143 
4 *25:21 *74:A_N 15.5679 
5 *25:21 *25:32 4.375 
6 *25:32 *78:C1 35.55 
7 *25:32 *70:A_N 16.9607 
*END

*D_NET *26 0.00747064
*CONN
*I *72:A I *D sky130_fd_sc_hd__nand3_1
*I *87:A I *D sky130_fd_sc_hd__buf_1
*I *73:A1 I *D sky130_fd_sc_hd__a21o_1
*I *77:A I *D sky130_fd_sc_hd__and4_1
*I *68:A I *D sky130_fd_sc_hd__nand2_1
*I *66:A I *D sky130_fd_sc_hd__nor2_1
*I *67:D_N I *D sky130_fd_sc_hd__or4bb_1
*I *69:A I *D sky130_fd_sc_hd__or2_1
*I *79:Q O *D sky130_fd_sc_hd__dfxtp_1
*CAP
1 *72:A 0.000341563
2 *87:A 0
3 *73:A1 0
4 *77:A 0.000165566
5 *68:A 0
6 *66:A 9.9105e-05
7 *67:D_N 0
8 *69:A 0
9 *79:Q 8.42426e-05
10 *26:92 0.000597708
11 *26:68 0.000213807
12 *26:66 0.000759633
13 *26:51 0.000511851
14 *26:31 0.000771875
15 *26:19 0.00109061
16 *26:12 0.000445481
17 *66:A *67:C_N 5.49489e-05
18 *66:A *27:10 5.20669e-05
19 *72:A *72:B 5.52238e-05
20 *72:A *72:C 0.000126629
21 *77:A *73:A2 0.000153054
22 *77:A *29:33 6.74911e-05
23 *26:19 *29:10 5.20669e-05
24 *26:31 *67:C_N 0.000181182
25 *26:31 *27:10 0
26 *26:31 *27:32 0
27 *26:31 *28:23 3.69047e-06
28 *26:66 *68:B 5.52302e-05
29 *26:66 *73:A2 1.58163e-05
30 *26:66 *73:B1 0.000174777
31 *26:68 *73:A2 2.31791e-05
32 *26:92 *72:C 0
33 count[1] *77:A 0.00020455
34 count[1] *26:68 0.000105689
35 count[1] *26:92 6.5919e-05
36 *70:B *26:12 0.000153054
37 *70:C *26:19 5.30637e-06
38 *70:C *26:51 8.18783e-05
39 *70:C *26:66 2.89016e-05
40 *71:A *26:31 0
41 *75:A *66:A 5.19718e-05
42 *78:C1 *26:68 0
43 *80:CLK *66:A 0.000169844
44 *82:D *26:51 0.000172899
45 *82:D *26:66 0.000136371
46 *83:A *26:12 8.39e-05
47 *85:A *26:31 0.00010326
48 *17:10 *72:A 1.02936e-05
*RES
1 *79:Q *26:12 20.7821 
2 *26:12 *69:A 9.3 
3 *26:12 *26:19 5.875 
4 *26:19 *26:31 18.875 
5 *26:31 *67:D_N 9.3 
6 *26:31 *66:A 21.4964 
7 *26:19 *26:51 2.17857 
8 *26:51 *68:A 9.3 
9 *26:51 *26:66 11.6607 
10 *26:66 *26:68 1.33929 
11 *26:68 *77:A 18.4071 
12 *26:68 *73:A1 13.8 
13 *26:66 *26:92 9.10714 
14 *26:92 *87:A 9.3 
15 *26:92 *72:A 16.0321 
*END

*D_NET *27 0.00689471
*CONN
*I *77:B I *D sky130_fd_sc_hd__and4_1
*I *88:A I *D sky130_fd_sc_hd__buf_1
*I *73:A2 I *D sky130_fd_sc_hd__a21o_1
*I *72:B I *D sky130_fd_sc_hd__nand3_1
*I *68:B I *D sky130_fd_sc_hd__nand2_1
*I *67:A I *D sky130_fd_sc_hd__or4bb_1
*I *69:B I *D sky130_fd_sc_hd__or2_1
*I *80:Q O *D sky130_fd_sc_hd__dfxtp_1
*CAP
1 *77:B 0.000258304
2 *88:A 0
3 *73:A2 0.00013909
4 *72:B 0.00025134
5 *68:B 1.16062e-05
6 *67:A 0
7 *69:B 0.000200207
8 *80:Q 0
9 *27:62 0.000432795
10 *27:34 0.000389851
11 *27:32 0.000613801
12 *27:10 0.000930207
13 *27:6 0.000955422
14 *27:4 0.000290535
15 *69:B *67:B 0.000104974
16 *72:B *72:C 0
17 *73:A2 *28:34 0
18 *77:B *77:D 0.000175251
19 *77:B *28:23 0.000185643
20 *77:B *28:30 4.38128e-05
21 *27:6 *28:23 2.14757e-05
22 *27:10 *67:C_N 0.000169622
23 *27:10 *28:23 0.000142053
24 *27:32 *28:10 0
25 *27:62 *29:33 4.58976e-05
26 *66:A *27:10 5.20669e-05
27 *70:B *69:B 4.98872e-05
28 *70:C *72:B 0
29 *72:A *72:B 5.52238e-05
30 *74:C *27:34 7.79781e-06
31 *74:C *27:62 5.52302e-05
32 *74:D *73:A2 4.57538e-05
33 *74:D *27:62 0.000307349
34 *77:A *73:A2 0.000153054
35 *78:A1 *27:34 0.000123295
36 *78:A1 *27:62 9.25014e-06
37 *78:B1 *73:A2 0
38 *78:C1 *73:A2 0
39 *80:D *27:10 1.64343e-05
40 *82:CLK *72:B 8.9163e-05
41 *82:D *68:B 5.52302e-05
42 *83:A *69:B 0.000128161
43 *84:A *27:32 0
44 *84:A *27:62 2.07158e-05
45 *85:A *72:B 0
46 *85:A *27:34 0
47 *85:A *27:62 2.14658e-05
48 *13:10 *69:B 9.06147e-05
49 *13:10 *27:10 1.32552e-05
50 *17:10 *72:B 0.000120875
51 *17:10 *27:34 6.8646e-06
52 *25:21 *69:B 1.69115e-05
53 *26:31 *27:10 0
54 *26:31 *27:32 0
55 *26:66 *68:B 5.52302e-05
56 *26:66 *73:A2 1.58163e-05
57 *26:68 *73:A2 2.31791e-05
*RES
1 *80:Q *27:4 9.3 
2 *27:4 *27:6 0.535714 
3 *27:6 *27:10 9.48214 
4 *27:10 *69:B 23.5143 
5 *27:10 *67:A 9.3 
6 *27:6 *27:32 7.50893 
7 *27:32 *27:34 2.70536 
8 *27:34 *68:B 14.3357 
9 *27:34 *72:B 19.3179 
10 *27:32 *27:62 10.2589 
11 *27:62 *73:A2 21.4964 
12 *27:62 *88:A 9.3 
13 *27:4 *77:B 14.3714 
*END

*D_NET *28 0.00461125
*CONN
*I *77:D I *D sky130_fd_sc_hd__and4_1
*I *72:C I *D sky130_fd_sc_hd__nand3_1
*I *73:B1 I *D sky130_fd_sc_hd__a21o_1
*I *89:A I *D sky130_fd_sc_hd__buf_1
*I *67:C_N I *D sky130_fd_sc_hd__or4bb_1
*I *81:Q O *D sky130_fd_sc_hd__dfxtp_1
*CAP
1 *77:D 6.20053e-05
2 *72:C 0.000261061
3 *73:B1 0.000116247
4 *89:A 0
5 *67:C_N 0.000159732
6 *81:Q 0.000242966
7 *28:34 0.000584231
8 *28:30 0.000289219
9 *28:23 0.000208506
10 *28:10 0.000590913
11 *28:34 *29:33 0
12 *66:A *67:C_N 5.49489e-05
13 *71:A *28:10 0
14 *72:A *72:C 0.000126629
15 *72:B *72:C 0
16 *73:A2 *28:34 0
17 *74:C *28:34 2.97074e-05
18 *77:B *77:D 0.000175251
19 *77:B *28:23 0.000185643
20 *77:B *28:30 4.38128e-05
21 *78:B1 *73:B1 3.99614e-06
22 *78:B1 *28:34 0.000149896
23 *78:C1 *72:C 9.91086e-05
24 *78:C1 *28:34 5.58941e-05
25 *80:D *67:C_N 1.64343e-05
26 *80:D *28:10 0
27 *82:D *73:B1 9.60939e-05
28 *84:A *28:10 0
29 *84:A *28:34 0.000140021
30 *17:10 *72:C 0.000195055
31 *17:10 *28:34 3.10821e-05
32 *26:31 *67:C_N 0.000181182
33 *26:31 *28:23 3.69047e-06
34 *26:66 *73:B1 0.000174777
35 *26:92 *72:C 0
36 *27:6 *28:23 2.14757e-05
37 *27:10 *67:C_N 0.000169622
38 *27:10 *28:23 0.000142053
39 *27:32 *28:10 0
*RES
1 *81:Q *28:10 22.3714 
2 *28:10 *67:C_N 14.0857 
3 *28:10 *28:23 4.64286 
4 *28:23 *89:A 9.3 
5 *28:23 *28:30 0.535714 
6 *28:30 *28:34 10.0893 
7 *28:34 *73:B1 16.8357 
8 *28:34 *72:C 20.05 
9 *28:30 *77:D 11.0679 
*END

*D_NET *29 0.00447711
*CONN
*I *76:A I *D sky130_fd_sc_hd__inv_2
*I *77:C I *D sky130_fd_sc_hd__and4_1
*I *90:A I *D sky130_fd_sc_hd__buf_1
*I *67:B I *D sky130_fd_sc_hd__or4bb_1
*I *82:Q O *D sky130_fd_sc_hd__dfxtp_1
*CAP
1 *76:A 0
2 *77:C 0
3 *90:A 0.00029021
4 *67:B 0.000149393
5 *82:Q 0.000157015
6 *29:33 0.000955681
7 *29:14 0.00085722
8 *29:10 0.000199371
9 count[2] *90:A 0
10 *69:B *67:B 0.000104974
11 *74:A_N *67:B 9.41642e-05
12 *74:D *67:B 0.000129938
13 *74:D *29:33 0.00104021
14 *75:A *67:B 9.77118e-05
15 *77:A *29:33 6.74911e-05
16 *78:B1 *29:33 3.5707e-05
17 *79:D *29:10 5.6394e-05
18 *79:D *29:14 2.6304e-05
19 *83:A *67:B 1.41034e-05
20 *84:A *29:33 0
21 *13:10 *67:B 0.00010326
22 *25:32 *29:10 0
23 *25:32 *29:14 0
24 *26:19 *29:10 5.20669e-05
25 *27:62 *29:33 4.58976e-05
26 *28:34 *29:33 0
*RES
1 *82:Q *29:10 16.3893 
2 *29:10 *29:14 5.23214 
3 *29:14 *67:B 22.2286 
4 *29:14 *29:33 18.1607 
5 *29:33 *90:A 18.7107 
6 *29:33 *77:C 13.8 
7 *29:10 *76:A 13.8 
*END
