*SPEF "ieee 1481-1999"
*DESIGN "counter"
*DATE "18:10:38 Saturday May 24, 2025"
*VENDOR "The OpenROAD Project"
*PROGRAM "OpenROAD"
*VERSION "b16bda7e82721d10566ff7e2b68f1ff0be9f9e38"
*DESIGN_FLOW "NAME_SCOPE LOCAL" "PIN_CAP NONE"
*DIVIDER /
*DELIMITER :
*BUS_DELIMITER []
*T_UNIT 1 NS
*C_UNIT 1 PF
*R_UNIT 1 OHM
*L_UNIT 1 HENRY

*NAME_MAP
*3 clk
*4 count[0]
*5 count[1]
*6 count[2]
*7 count[3]
*8 reset
*9 _00_
*10 _01_
*11 _02_
*12 _03_
*13 _04_
*14 _05_
*15 _06_
*16 _07_
*17 _08_
*18 _09_
*19 _10_
*20 _11_
*21 _12_
*22 clknet_0_clk
*23 clknet_1_0__leaf_clk
*24 clknet_1_1__leaf_clk
*25 net1
*26 net2
*27 net3
*28 net4
*29 net5
*30 FILLER_0_0_21
*31 FILLER_0_0_27
*32 FILLER_0_0_29
*33 FILLER_0_0_3
*34 FILLER_0_0_37
*35 FILLER_0_1_12
*36 FILLER_0_1_36
*37 FILLER_0_1_40
*38 FILLER_0_2_29
*39 FILLER_0_3_14
*40 FILLER_0_3_36
*41 FILLER_0_4_3
*42 FILLER_0_5_3
*43 FILLER_0_6_15
*44 FILLER_0_6_23
*45 FILLER_0_6_29
*46 FILLER_0_6_3
*47 FILLER_0_6_37
*48 PHY_EDGE_ROW_0_Left_7
*49 PHY_EDGE_ROW_0_Right_0
*50 PHY_EDGE_ROW_1_Left_8
*51 PHY_EDGE_ROW_1_Right_1
*52 PHY_EDGE_ROW_2_Left_9
*53 PHY_EDGE_ROW_2_Right_2
*54 PHY_EDGE_ROW_3_Left_10
*55 PHY_EDGE_ROW_3_Right_3
*56 PHY_EDGE_ROW_4_Left_11
*57 PHY_EDGE_ROW_4_Right_4
*58 PHY_EDGE_ROW_5_Left_12
*59 PHY_EDGE_ROW_5_Right_5
*60 PHY_EDGE_ROW_6_Left_13
*61 PHY_EDGE_ROW_6_Right_6
*62 TAP_TAPCELL_ROW_0_14
*63 TAP_TAPCELL_ROW_2_15
*64 TAP_TAPCELL_ROW_4_16
*65 TAP_TAPCELL_ROW_6_17
*66 _13_
*67 _14_
*68 _15_
*69 _16_
*70 _17_
*71 _18_
*72 _19_
*73 _20_
*74 _21_
*75 _22_
*76 _23_
*77 _24_
*78 _25_
*79 _26_
*80 _27_
*81 _28_
*82 _29_
*83 clkbuf_0_clk
*84 clkbuf_1_0__f_clk
*85 clkbuf_1_1__f_clk
*86 input1
*87 output2
*88 output3
*89 output4
*90 output5

*PORTS
clk I
count[0] O
count[1] O
count[2] O
count[3] O
reset I

*D_NET *3 0.00237085
*CONN
*P clk I
*I *83:A I *D sky130_fd_sc_hd__clkbuf_16
*CAP
1 clk 0.00070316
2 *83:A 0.00070316
3 *83:A *67:B 1.36197e-05
4 *83:A *69:B 0.000118527
5 *83:A *70:A_N 0
6 *83:A *70:B 8.14111e-05
7 *83:A *74:A_N 8.88715e-05
8 *83:A *74:C 0.00034335
9 *83:A *74:D 7.91959e-05
10 *83:A *78:A1 0.000158711
11 *83:A *26:12 8.08439e-05
*RES
1 clk *83:A 16.3218 
*END

*D_NET *4 0.000817703
*CONN
*P count[0] O
*I *87:X O *D sky130_fd_sc_hd__buf_1
*CAP
1 count[0] 0.000408852
2 *87:X 0.000408852
*RES
1 *87:X count[0] 8.41677 
*END

*D_NET *5 0.00106061
*CONN
*P count[1] O
*I *88:X O *D sky130_fd_sc_hd__buf_1
*CAP
1 count[1] 0.00035628
2 *88:X 0.00035628
3 count[1] *77:A 0.000189426
4 count[1] *26:68 9.78012e-05
5 count[1] *26:92 6.08203e-05
*RES
1 *88:X count[1] 8.41677 
*END

*D_NET *6 0.000965719
*CONN
*P count[2] O
*I *89:X O *D sky130_fd_sc_hd__buf_1
*CAP
1 count[2] 0.000464421
2 *89:X 0.000464421
3 count[2] *84:A 3.68769e-05
4 count[2] *90:A 0
*RES
1 *89:X count[2] 6.27463 
*END

*D_NET *7 0.000873867
*CONN
*P count[3] O
*I *90:X O *D sky130_fd_sc_hd__buf_1
*CAP
1 count[3] 0.000436933
2 *90:X 0.000436933
*RES
1 *90:X count[3] 8.92677 
*END

*D_NET *8 0.000892544
*CONN
*P reset I
*I *86:A I *D sky130_fd_sc_hd__buf_1
*CAP
1 reset 0.000394049
2 *86:A 0.000394049
3 *86:A *75:A 0
4 *86:A *80:CLK 0
5 *86:A *81:CLK 9.428e-05
6 *86:A *81:D 1.01661e-05
*RES
1 reset *86:A 8.67177 
*END

*D_NET *9 0.00194715
*CONN
*I *79:D I *D sky130_fd_sc_hd__dfxtp_1
*I *66:Y O *D sky130_fd_sc_hd__nor2_1
*CAP
1 *79:D 0.000502309
2 *66:Y 0.000502309
3 *79:D *71:A 0.000638764
4 *79:D *78:C1 6.26681e-05
5 *79:D *80:CLK 0.000112409
6 *79:D *81:CLK 3.29947e-05
7 *79:D *23:6 1.31297e-05
8 *79:D *25:21 0
9 *79:D *25:32 0
10 *79:D *29:10 5.64507e-05
11 *79:D *29:14 2.61115e-05
*RES
1 *66:Y *79:D 17.6138 
*END

*D_NET *10 0.000239122
*CONN
*I *80:D I *D sky130_fd_sc_hd__dfxtp_1
*I *71:X O *D sky130_fd_sc_hd__clkbuf_1
*CAP
1 *80:D 5.78168e-05
2 *71:X 5.78168e-05
3 *80:D *67:C_N 1.43717e-05
4 *80:D *71:A 9.47454e-05
5 *80:D *27:10 1.43717e-05
6 *80:D *28:10 0
*RES
1 *71:X *80:D 8.46375 
*END

*D_NET *11 0.000365178
*CONN
*I *81:D I *D sky130_fd_sc_hd__dfxtp_1
*I *75:X O *D sky130_fd_sc_hd__clkbuf_1
*CAP
1 *81:D 0.000117413
2 *75:X 0.000117413
3 *81:D *81:CLK 0.000120186
4 *86:A *81:D 1.01661e-05
*RES
1 *75:X *81:D 9.555 
*END

*D_NET *12 0.000971503
*CONN
*I *82:D I *D sky130_fd_sc_hd__dfxtp_1
*I *78:Y O *D sky130_fd_sc_hd__a211oi_1
*CAP
1 *82:D 0.000216699
2 *78:Y 0.000216699
3 *82:D *68:B 4.82919e-05
4 *82:D *73:B1 8.40269e-05
5 *82:D *78:A1 7.6477e-05
6 *82:D *78:B1 4.80285e-05
7 *82:D *26:51 0.000151163
8 *82:D *26:66 0.000130118
*RES
1 *78:Y *82:D 8.39375 
*END

*D_NET *13 0.00194466
*CONN
*I *70:B I *D sky130_fd_sc_hd__and4b_1
*I *74:B I *D sky130_fd_sc_hd__and4b_1
*I *67:X O *D sky130_fd_sc_hd__or4bb_1
*CAP
1 *70:B 0.000243624
2 *74:B 0
3 *67:X 0.000135371
4 *13:10 0.000378995
5 *70:B *69:B 4.84393e-05
6 *70:B *70:A_N 0.000178248
7 *70:B *70:D 8.52883e-05
8 *70:B *25:32 0.000251595
9 *70:B *26:12 0.000141606
10 *13:10 *67:B 9.54399e-05
11 *13:10 *69:B 8.75389e-05
12 *13:10 *25:21 0.000137578
13 *13:10 *25:32 6.61973e-05
14 *13:10 *27:10 1.33293e-05
15 *83:A *70:B 8.14111e-05
*RES
1 *67:X *13:10 7.14 
2 *13:10 *74:B 3.6 
3 *13:10 *70:B 10.035 
*END

*D_NET *14 0.00145714
*CONN
*I *70:C I *D sky130_fd_sc_hd__and4b_1
*I *68:Y O *D sky130_fd_sc_hd__nand2_1
*CAP
1 *70:C 0.000575981
2 *68:Y 0.000575981
3 *70:C *70:D 5.91231e-05
4 *70:C *71:A 0
5 *70:C *72:B 0
6 *70:C *85:A 0.000136884
7 *70:C *26:19 4.9253e-06
8 *70:C *26:51 7.67345e-05
9 *70:C *26:66 2.75145e-05
*RES
1 *68:Y *70:C 16.005 
*END

*D_NET *15 0.000865618
*CONN
*I *70:D I *D sky130_fd_sc_hd__and4b_1
*I *69:X O *D sky130_fd_sc_hd__or2_1
*CAP
1 *70:D 0.000220184
2 *69:X 0.000220184
3 *70:D *70:A_N 0.000208484
4 *70:D *25:32 7.23533e-05
5 *70:B *70:D 8.52883e-05
6 *70:C *70:D 5.91231e-05
*RES
1 *69:X *70:D 11.9438 
*END

*D_NET *16 0.00173902
*CONN
*I *71:A I *D sky130_fd_sc_hd__clkbuf_1
*I *70:X O *D sky130_fd_sc_hd__and4b_1
*CAP
1 *71:A 0.000465827
2 *70:X 0.000465827
3 *71:A *80:CLK 2.44112e-05
4 *71:A *85:A 0
5 *71:A *23:6 4.94474e-05
6 *71:A *26:31 0
7 *71:A *28:10 0
8 *70:C *71:A 0
9 *79:D *71:A 0.000638764
10 *80:D *71:A 9.47454e-05
*RES
1 *70:X *71:A 17.19 
*END

*D_NET *17 0.00300506
*CONN
*I *78:A2 I *D sky130_fd_sc_hd__a211oi_1
*I *74:C I *D sky130_fd_sc_hd__and4b_1
*I *72:Y O *D sky130_fd_sc_hd__nand3_1
*CAP
1 *78:A2 0
2 *74:C 0.000489286
3 *72:Y 0.000239837
4 *17:10 0.000729124
5 *74:C *74:D 1.46744e-05
6 *74:C *78:A1 0.000401753
7 *74:C *84:A 2.92496e-05
8 *74:C *85:A 0.000311282
9 *74:C *27:34 8.08153e-06
10 *74:C *27:62 4.82919e-05
11 *74:C *28:34 3.09451e-05
12 *17:10 *72:A 9.80943e-06
13 *17:10 *72:B 0.000124574
14 *17:10 *72:C 0.000185844
15 *17:10 *27:34 7.21296e-06
16 *17:10 *28:34 3.17398e-05
17 *83:A *74:C 0.00034335
*RES
1 *72:Y *17:10 8.67 
2 *17:10 *74:C 13.14 
3 *17:10 *78:A2 3.6 
*END

*D_NET *18 0.00262068
*CONN
*I *74:D I *D sky130_fd_sc_hd__and4b_1
*I *73:X O *D sky130_fd_sc_hd__a21o_1
*CAP
1 *74:D 0.000239754
2 *73:X 0.000239754
3 *74:D *67:B 0.000112603
4 *74:D *73:A2 4.7043e-05
5 *74:D *78:A1 0.000572281
6 *74:D *78:B1 0.000139245
7 *74:D *27:62 0.000268745
8 *74:D *29:33 0.000907382
9 *74:C *74:D 1.46744e-05
10 *83:A *74:D 7.91959e-05
*RES
1 *73:X *74:D 18.1612 
*END

*D_NET *19 0.000886434
*CONN
*I *75:A I *D sky130_fd_sc_hd__clkbuf_1
*I *74:X O *D sky130_fd_sc_hd__and4b_1
*CAP
1 *75:A 0.000248494
2 *74:X 0.000248494
3 *75:A *66:A 5.46841e-05
4 *75:A *67:B 8.4841e-05
5 *75:A *25:21 0.000249921
6 *86:A *75:A 0
*RES
1 *74:X *75:A 11.415 
*END

*D_NET *20 0.00181907
*CONN
*I *78:A1 I *D sky130_fd_sc_hd__a211oi_1
*I *76:Y O *D sky130_fd_sc_hd__inv_2
*CAP
1 *78:A1 0.000241636
2 *76:Y 0.000241636
3 *78:A1 *84:A 4.24292e-06
4 *78:A1 *27:34 0.000113797
5 *78:A1 *27:62 8.53113e-06
6 *74:C *78:A1 0.000401753
7 *74:D *78:A1 0.000572281
8 *82:D *78:A1 7.6477e-05
9 *83:A *78:A1 0.000158711
*RES
1 *76:Y *78:A1 15 
*END

*D_NET *21 0.000723899
*CONN
*I *78:B1 I *D sky130_fd_sc_hd__a211oi_1
*I *77:X O *D sky130_fd_sc_hd__and4_1
*CAP
1 *78:B1 0.000174716
2 *77:X 0.000174716
3 *78:B1 *73:A2 0
4 *78:B1 *73:B1 4.00541e-06
5 *78:B1 *28:34 0.000146319
6 *78:B1 *29:33 3.68682e-05
7 *74:D *78:B1 0.000139245
8 *82:D *78:B1 4.80285e-05
*RES
1 *77:X *78:B1 11.52 
*END

*D_NET *22 0.00235735
*CONN
*I *84:A I *D sky130_fd_sc_hd__clkbuf_16
*I *85:A I *D sky130_fd_sc_hd__clkbuf_16
*I *83:X O *D sky130_fd_sc_hd__clkbuf_16
*CAP
1 *84:A 0.00034596
2 *85:A 0.000406279
3 *83:X 0
4 *22:4 0.000752239
5 *84:A *27:32 0
6 *84:A *27:62 2.06083e-05
7 *84:A *28:10 0
8 *84:A *28:34 0.000136321
9 *84:A *29:33 0
10 *85:A *72:B 0
11 *85:A *82:CLK 6.14602e-05
12 *85:A *26:31 9.54399e-05
13 *85:A *27:34 0
14 *85:A *27:62 2.05056e-05
15 count[2] *84:A 3.68769e-05
16 *70:C *85:A 0.000136884
17 *71:A *85:A 0
18 *74:C *84:A 2.92496e-05
19 *74:C *85:A 0.000311282
20 *78:A1 *84:A 4.24292e-06
*RES
1 *83:X *22:4 1.6 
2 *22:4 *85:A 12.485 
3 *22:4 *84:A 11.87 
*END

*D_NET *23 0.0013661
*CONN
*I *80:CLK I *D sky130_fd_sc_hd__dfxtp_1
*I *81:CLK I *D sky130_fd_sc_hd__dfxtp_1
*I *84:X O *D sky130_fd_sc_hd__clkbuf_16
*CAP
1 *80:CLK 6.75573e-05
2 *81:CLK 0.000192793
3 *84:X 8.14869e-05
4 *23:6 0.000341838
5 *80:CLK *66:A 0.000154551
6 *81:CLK *66:B 5.13692e-05
7 *81:CLK *25:6 2.96426e-05
8 *71:A *80:CLK 2.44112e-05
9 *71:A *23:6 4.94474e-05
10 *79:D *80:CLK 0.000112409
11 *79:D *81:CLK 3.29947e-05
12 *79:D *23:6 1.31297e-05
13 *81:D *81:CLK 0.000120186
14 *86:A *80:CLK 0
15 *86:A *81:CLK 9.428e-05
*RES
1 *84:X *23:6 3.085 
2 *23:6 *81:CLK 10.01 
3 *23:6 *80:CLK 7.745 
*END

*D_NET *24 0.0011735
*CONN
*I *82:CLK I *D sky130_fd_sc_hd__dfxtp_1
*I *79:CLK I *D sky130_fd_sc_hd__dfxtp_1
*I *85:X O *D sky130_fd_sc_hd__clkbuf_16
*CAP
1 *82:CLK 6.72701e-05
2 *79:CLK 7.7775e-05
3 *85:X 0.000226413
4 *24:8 0.000371458
5 *79:CLK *78:C1 9.02174e-05
6 *82:CLK *72:B 8.70923e-05
7 *24:8 *78:C1 0.00019181
8 *85:A *82:CLK 6.14602e-05
*RES
1 *85:X *24:8 5.86 
2 *24:8 *79:CLK 3.085 
3 *24:8 *82:CLK 7.49 
*END

*D_NET *25 0.00474469
*CONN
*I *70:A_N I *D sky130_fd_sc_hd__and4b_1
*I *78:C1 I *D sky130_fd_sc_hd__a211oi_1
*I *74:A_N I *D sky130_fd_sc_hd__and4b_1
*I *66:B I *D sky130_fd_sc_hd__nor2_1
*I *86:X O *D sky130_fd_sc_hd__buf_1
*CAP
1 *70:A_N 6.48396e-05
2 *78:C1 0.000862036
3 *74:A_N 6.46227e-05
4 *66:B 7.73337e-05
5 *86:X 6.12555e-05
6 *25:32 0.00106737
7 *25:21 0.000346016
8 *25:6 0.000279492
9 *74:A_N *67:B 8.23457e-05
10 *78:C1 *72:C 9.14049e-05
11 *78:C1 *73:A2 0
12 *78:C1 *26:68 0
13 *78:C1 *28:34 5.16348e-05
14 *25:21 *69:B 1.73877e-05
15 *25:32 *29:10 0
16 *25:32 *29:14 0
17 *70:B *70:A_N 0.000178248
18 *70:B *25:32 0.000251595
19 *70:D *70:A_N 0.000208484
20 *70:D *25:32 7.23533e-05
21 *75:A *25:21 0.000249921
22 *79:CLK *78:C1 9.02174e-05
23 *79:D *78:C1 6.26681e-05
24 *79:D *25:21 0
25 *79:D *25:32 0
26 *81:CLK *66:B 5.13692e-05
27 *81:CLK *25:6 2.96426e-05
28 *83:A *70:A_N 0
29 *83:A *74:A_N 8.88715e-05
30 *13:10 *25:21 0.000137578
31 *13:10 *25:32 6.61973e-05
32 *24:8 *78:C1 0.00019181
*RES
1 *86:X *25:6 2.395 
2 *25:6 *66:B 3.115 
3 *25:6 *25:21 5.42 
4 *25:21 *74:A_N 5.085 
5 *25:21 *25:32 3.675 
6 *25:32 *78:C1 18.31 
7 *25:32 *70:A_N 6.255 
*END

*D_NET *26 0.00673537
*CONN
*I *72:A I *D sky130_fd_sc_hd__nand3_1
*I *87:A I *D sky130_fd_sc_hd__buf_1
*I *73:A1 I *D sky130_fd_sc_hd__a21o_1
*I *77:A I *D sky130_fd_sc_hd__and4_1
*I *68:A I *D sky130_fd_sc_hd__nand2_1
*I *66:A I *D sky130_fd_sc_hd__nor2_1
*I *67:D_N I *D sky130_fd_sc_hd__or4bb_1
*I *69:A I *D sky130_fd_sc_hd__or2_1
*I *79:Q O *D sky130_fd_sc_hd__dfxtp_1
*CAP
1 *72:A 0.000315214
2 *87:A 0
3 *73:A1 0
4 *77:A 0.000146109
5 *68:A 0
6 *66:A 8.41849e-05
7 *67:D_N 0
8 *69:A 0
9 *79:Q 7.33305e-05
10 *26:92 0.000546079
11 *26:68 0.0001879
12 *26:66 0.000670547
13 *26:51 0.000447667
14 *26:31 0.000674794
15 *26:19 0.000972487
16 *26:12 0.000405434
17 *66:A *67:C_N 4.77719e-05
18 *66:A *27:10 4.88478e-05
19 *72:A *72:B 4.82863e-05
20 *72:A *72:C 0.000119631
21 *77:A *73:A2 0.000141606
22 *77:A *29:33 6.55328e-05
23 *26:19 *29:10 4.88478e-05
24 *26:31 *67:C_N 0.00017197
25 *26:31 *27:10 0
26 *26:31 *27:32 0
27 *26:31 *28:23 3.64998e-06
28 *26:66 *68:B 4.82919e-05
29 *26:66 *73:A2 1.56428e-05
30 *26:66 *73:B1 0.000154697
31 *26:68 *73:A2 2.14129e-05
32 *26:92 *72:C 0
33 count[1] *77:A 0.000189426
34 count[1] *26:68 9.78012e-05
35 count[1] *26:92 6.08203e-05
36 *70:B *26:12 0.000141606
37 *70:C *26:19 4.9253e-06
38 *70:C *26:51 7.67345e-05
39 *70:C *26:66 2.75145e-05
40 *71:A *26:31 0
41 *75:A *66:A 5.46841e-05
42 *78:C1 *26:68 0
43 *80:CLK *66:A 0.000154551
44 *82:D *26:51 0.000151163
45 *82:D *26:66 0.000130118
46 *83:A *26:12 8.08439e-05
47 *85:A *26:31 9.54399e-05
48 *17:10 *72:A 9.80943e-06
*RES
1 *79:Q *26:12 7.685 
2 *26:12 *69:A 1.6 
3 *26:12 *26:19 4.935 
4 *26:19 *26:31 12.295 
5 *26:31 *67:D_N 1.6 
6 *26:31 *66:A 8.285 
7 *26:19 *26:51 1.83 
8 *26:51 *68:A 1.6 
9 *26:51 *26:66 8.015 
10 *26:66 *26:68 1.125 
11 *26:68 *77:A 7.47 
12 *26:68 *73:A1 3.6 
13 *26:66 *26:92 5.87 
14 *26:92 *87:A 1.6 
15 *26:92 *72:A 7.255 
*END

*D_NET *27 0.00616168
*CONN
*I *77:B I *D sky130_fd_sc_hd__and4_1
*I *88:A I *D sky130_fd_sc_hd__buf_1
*I *73:A2 I *D sky130_fd_sc_hd__a21o_1
*I *72:B I *D sky130_fd_sc_hd__nand3_1
*I *68:B I *D sky130_fd_sc_hd__nand2_1
*I *67:A I *D sky130_fd_sc_hd__or4bb_1
*I *69:B I *D sky130_fd_sc_hd__or2_1
*I *80:Q O *D sky130_fd_sc_hd__dfxtp_1
*CAP
1 *77:B 0.000236607
2 *88:A 0
3 *73:A2 0.000119984
4 *72:B 0.000217303
5 *68:B 9.71884e-06
6 *67:A 0
7 *69:B 0.000174764
8 *80:Q 0
9 *27:62 0.000378317
10 *27:34 0.00033645
11 *27:32 0.000540943
12 *27:10 0.000809623
13 *27:6 0.000836021
14 *27:4 0.000264586
15 *69:B *67:B 9.71067e-05
16 *72:B *72:C 0
17 *73:A2 *28:34 0
18 *77:B *77:D 0.000153217
19 *77:B *28:23 0.000162311
20 *77:B *28:30 3.83041e-05
21 *27:6 *28:23 2.0514e-05
22 *27:10 *67:C_N 0.000161611
23 *27:10 *28:23 0.000134314
24 *27:32 *28:10 0
25 *27:62 *29:33 4.35348e-05
26 *66:A *27:10 4.88478e-05
27 *70:B *69:B 4.84393e-05
28 *70:C *72:B 0
29 *72:A *72:B 4.82863e-05
30 *74:C *27:34 8.08153e-06
31 *74:C *27:62 4.82919e-05
32 *74:D *73:A2 4.7043e-05
33 *74:D *27:62 0.000268745
34 *77:A *73:A2 0.000141606
35 *78:A1 *27:34 0.000113797
36 *78:A1 *27:62 8.53113e-06
37 *78:B1 *73:A2 0
38 *78:C1 *73:A2 0
39 *80:D *27:10 1.43717e-05
40 *82:CLK *72:B 8.70923e-05
41 *82:D *68:B 4.82919e-05
42 *83:A *69:B 0.000118527
43 *84:A *27:32 0
44 *84:A *27:62 2.06083e-05
45 *85:A *72:B 0
46 *85:A *27:34 0
47 *85:A *27:62 2.05056e-05
48 *13:10 *69:B 8.75389e-05
49 *13:10 *27:10 1.33293e-05
50 *17:10 *72:B 0.000124574
51 *17:10 *27:34 7.21296e-06
52 *25:21 *69:B 1.73877e-05
53 *26:31 *27:10 0
54 *26:31 *27:32 0
55 *26:66 *68:B 4.82919e-05
56 *26:66 *73:A2 1.56428e-05
57 *26:68 *73:A2 2.14129e-05
*RES
1 *80:Q *27:4 1.6 
2 *27:4 *27:6 0.45 
3 *27:6 *27:10 7.965 
4 *27:10 *69:B 9.98 
5 *27:10 *67:A 1.6 
6 *27:6 *27:32 4.5275 
7 *27:32 *27:34 2.2725 
8 *27:34 *68:B 4.05 
9 *27:34 *72:B 8.235 
10 *27:32 *27:62 6.8375 
11 *27:62 *73:A2 8.285 
12 *27:62 *88:A 1.6 
13 *27:4 *77:B 5.86 
*END

*D_NET *28 0.00417157
*CONN
*I *77:D I *D sky130_fd_sc_hd__and4_1
*I *72:C I *D sky130_fd_sc_hd__nand3_1
*I *73:B1 I *D sky130_fd_sc_hd__a21o_1
*I *89:A I *D sky130_fd_sc_hd__buf_1
*I *67:C_N I *D sky130_fd_sc_hd__or4bb_1
*I *81:Q O *D sky130_fd_sc_hd__dfxtp_1
*CAP
1 *77:D 5.81953e-05
2 *72:C 0.000228989
3 *73:B1 0.000103646
4 *89:A 0
5 *67:C_N 0.000137587
6 *81:Q 0.000219535
7 *28:34 0.000507228
8 *28:30 0.000251361
9 *28:23 0.000190939
10 *28:10 0.000529488
11 *28:34 *29:33 0
12 *66:A *67:C_N 4.77719e-05
13 *71:A *28:10 0
14 *72:A *72:C 0.000119631
15 *72:B *72:C 0
16 *73:A2 *28:34 0
17 *74:C *28:34 3.09451e-05
18 *77:B *77:D 0.000153217
19 *77:B *28:23 0.000162311
20 *77:B *28:30 3.83041e-05
21 *78:B1 *73:B1 4.00541e-06
22 *78:B1 *28:34 0.000146319
23 *78:C1 *72:C 9.14049e-05
24 *78:C1 *28:34 5.16348e-05
25 *80:D *67:C_N 1.43717e-05
26 *80:D *28:10 0
27 *82:D *73:B1 8.40269e-05
28 *84:A *28:10 0
29 *84:A *28:34 0.000136321
30 *17:10 *72:C 0.000185844
31 *17:10 *28:34 3.17398e-05
32 *26:31 *67:C_N 0.00017197
33 *26:31 *28:23 3.64998e-06
34 *26:66 *73:B1 0.000154697
35 *26:92 *72:C 0
36 *27:6 *28:23 2.0514e-05
37 *27:10 *67:C_N 0.000161611
38 *27:10 *28:23 0.000134314
39 *27:32 *28:10 0
*RES
1 *81:Q *28:10 9.02 
2 *28:10 *67:C_N 5.62 
3 *28:10 *28:23 3.9 
4 *28:23 *89:A 1.6 
5 *28:23 *28:30 0.45 
6 *28:30 *28:34 6.695 
7 *28:34 *73:B1 6.15 
8 *28:34 *72:C 8.85 
9 *28:30 *77:D 3.085 
*END

*D_NET *29 0.004002
*CONN
*I *76:A I *D sky130_fd_sc_hd__inv_2
*I *77:C I *D sky130_fd_sc_hd__and4_1
*I *90:A I *D sky130_fd_sc_hd__buf_1
*I *67:B I *D sky130_fd_sc_hd__or4bb_1
*I *82:Q O *D sky130_fd_sc_hd__dfxtp_1
*CAP
1 *76:A 0
2 *77:C 0
3 *90:A 0.000264366
4 *67:B 0.000129403
5 *82:Q 0.000135552
6 *29:33 0.000863868
7 *29:14 0.000765739
8 *29:10 0.000172386
9 count[2] *90:A 0
10 *69:B *67:B 9.71067e-05
11 *74:A_N *67:B 8.23457e-05
12 *74:D *67:B 0.000112603
13 *74:D *29:33 0.000907382
14 *75:A *67:B 8.4841e-05
15 *77:A *29:33 6.55328e-05
16 *78:B1 *29:33 3.68682e-05
17 *79:D *29:10 5.64507e-05
18 *79:D *29:14 2.61115e-05
19 *83:A *67:B 1.36197e-05
20 *84:A *29:33 0
21 *13:10 *67:B 9.54399e-05
22 *25:32 *29:10 0
23 *25:32 *29:14 0
24 *26:19 *29:10 4.88478e-05
25 *27:62 *29:33 4.35348e-05
26 *28:34 *29:33 0
*RES
1 *82:Q *29:10 5.775 
2 *29:10 *29:14 2.615 
3 *29:14 *67:B 8.9 
4 *29:14 *29:33 13.475 
5 *29:33 *90:A 7.725 
6 *29:33 *77:C 3.6 
7 *29:10 *76:A 3.6 
*END
